10
E (MM, N=0) = 3.402061
 C     0.489540    -0.137287     0.000000 
 O     0.415700    -1.343866     0.000000 
 O     1.668983     0.530544     0.000000 
 H     2.366598    -0.144336     0.000000 
 C    -0.689953     0.817171     0.000000 
 H    -0.587143     1.473033     0.866245 
 N    -1.995924     0.203005     0.000000 
 H    -2.079505    -0.407088     0.803719 
 H    -2.079505    -0.407088    -0.803719 
 H    -0.587143     1.473033    -0.866245 
10
E (MM, N=2) = 4.163876
 C    -0.672821     2.334372     0.000000 
 O    -1.649237     3.047042     0.000000 
 O     0.593785     2.816859     0.000000 
 H     0.518915     3.784601     0.000000 
 C    -0.689953     0.817171     0.000000 
 H    -0.119229     0.478056    -0.866245 
 N    -1.995924     0.203005     0.000000 
 H    -2.079505    -0.407088     0.803719 
 H    -2.079505    -0.407088    -0.803719 
 H    -0.119229     0.478056     0.866245 
10
E (MM, N=4) = 4.984579
 C     0.489540    -0.137287     0.000000 
 O     1.654176     0.186608     0.000000 
 O     0.082418    -1.430089    -0.000000 
 H     0.887967    -1.971586    -0.000000 
 C    -0.689953     0.817171     0.000000 
 H    -0.587143     1.473033     0.866245 
 N    -1.995924     0.203005     0.000000 
 H    -2.079505    -0.407088     0.803719 
 H    -2.079505    -0.407088    -0.803719 
 H    -0.587143     1.473033    -0.866245 
10
E (MM, N=6) = 4.993390
 C    -0.672821     2.334372     0.000000 
 O     0.319437     3.024813     0.000000 
 O    -1.928210     2.845336     0.000000 
 H    -1.831508     3.811141     0.000000 
 C    -0.689953     0.817171     0.000000 
 H    -0.119229     0.478056    -0.866245 
 N    -1.995924     0.203005     0.000000 
 H    -2.079505    -0.407088     0.803719 
 H    -2.079505    -0.407088    -0.803719 
 H    -0.119229     0.478056     0.866245 
10
E (MM, N=1) = 9.433534
 C     0.489540    -0.137287     0.000000 
 O    -0.583113     0.420120    -0.000000 
 O     1.668983     0.530544     0.000000 
 H     2.366598    -0.144336     0.000000 
 C     0.701216    -1.639747     0.000000 
 H     1.316522    -1.888993    -0.866245 
 N    -0.497302    -2.443685     0.000000 
 H    -1.063467    -2.201495    -0.803719 
 H    -1.063467    -2.201495     0.803719 
 H     1.316522    -1.888993     0.866245 
10
E (MM, N=3) = 10.192433
 C    -0.672821     2.334372     0.000000 
 O    -0.927626     1.152695     0.000000 
 O     0.593785     2.816859     0.000000 
 H     0.518915     3.784601     0.000000 
 C    -1.695029     3.455659     0.000000 
 H    -1.494567     4.088541     0.866245 
 N    -3.078632     3.045289     0.000000 
 H    -3.546935     3.445153    -0.803719 
 H    -3.546935     3.445153     0.803719 
 H    -1.494567     4.088541    -0.866245 
10
E (MM, N=7) = 31.393893
 C    -0.672821     2.334372     0.000000 
 O    -0.444764     1.147243    -0.000000 
 O    -1.928210     2.845336     0.000000 
 H    -1.831508     3.811141     0.000000 
 C     0.374444     3.432292     0.000000 
 H     1.019766     3.276457     0.866245 
 N    -0.131423     4.783906     0.000000 
 H     0.234808     5.278956    -0.803719 
 H     0.234808     5.278956     0.803719 
 H     1.019766     3.276457    -0.866245 
10
E (MM, N=5) = 62.664135
 C     0.489540    -0.137287     0.000000 
 O    -0.279349     0.795503     0.000000 
 O     0.082418    -1.430089    -0.000000 
 H     0.887967    -1.971586    -0.000000 
 C     2.003104    -0.030911    -0.000000 
 H     2.294656     0.565514    -0.866245 
 N     2.721497    -1.282579    -0.000000 
 H     2.440411    -1.830474    -0.803719 
 H     2.440411    -1.830474     0.803719 
 H     2.294656     0.565514     0.866245 
